data/irish_network/psse/SummerPeak2022.raw
0,   100.00          / PSS/E-30.3    MON, NOV 18 2013  18:09
AITYTFS Summer Peak 2022

    10,'F_M         ',  38.0000,1,     0.000,     0.000,   2,   1,1.06402,  -9.1956,   2
    11,'FMN LOOP    ',  38.0000,1,     0.000,     0.000,   2,   1,1.04988,  -8.1987,   2
    12,'BEDFORD     ',  38.0000,1,     0.000,     0.000,   1,   1,1.05485,  -6.4997,   2
    13,'M_R         ',  38.0000,1,     0.000,     0.000,   1,   1,1.06992,  -6.7505,   2
    14,'F_I         ',  38.0000,1,     0.000,     0.000,   2,   1,1.04462, -10.6181,   2
    15,'I_M         ',  38.0000,1,     0.000,     0.000,   2,   1,1.06019, -10.2261,   2
  1021,'ARDNACRU    ', 110.0000,1,     0.000,     0.000,   4,   1,1.04313,  -8.1079,   1
  1041,'AGHADA      ', 110.0000,1,     0.000,     0.000,   3,   1,1.04147,  -6.9430,   1
  1042,'AGHADA      ', 220.0000,1,     0.000,     0.000,   3,   1,1.05000,  -4.6567,   1
  1052,'AGHADA_B    ', 220.0000,1,     0.000,     0.000,   3,   1,1.04904,  -3.9475,   1
  1061,'ARIGNA      ', 110.0000,1,     0.000,     0.000,   9,   1,1.05534,  -8.7366,   2
  1062,'AGH_AT14    ', 220.0000,1,     0.000,     0.000,   3,   1,1.05000,  -4.6567,   1
  1071,'AGANNYGA    ', 110.0000,1,     0.000,     0.000,   4,   1,1.05999,  -5.6948,   1
  1072,'AGHT2102    ', 220.0000,1,     0.000,     0.000,   3,   1,1.04994,  -4.6673,   1
  1081,'AHANE       ', 110.0000,1,     0.000,     0.000,   7,   1,1.04349,  -7.7537,   2
  1091,'ADAMSTOW    ', 110.0000,1,     0.000,     0.000,   1,   1,1.04429,  -9.5266,   2
  1101,'ANNER       ', 110.0000,1,     0.000,     0.000,   5,   1,1.04715,  -9.9189,   5
  1121,'ARKLOW      ', 110.0000,1,     0.000,     0.000,   6,   1,1.06109,  -5.5363,   1
  1122,'ARKLOW      ', 220.0000,1,     0.000,     0.000,   6,   1,1.05958,  -4.7306,   1
  1131,'ATHEA       ', 110.0000,1,     0.000,     0.000,   7,   1,1.04991,  -0.5524,   4
  1141,'ATHLONE     ', 110.0000,1,     0.000,     0.000,   9,   1,1.05522,  -7.4025,   1
  1151,'ATHEA-2     ', 110.0000,1,     0.000,     0.000,   7,   1,1.04991,  -0.5524,   1
  1161,'AUGHINIS    ', 110.0000,1,     0.000,     0.000,   7,   1,1.05000,  -3.4707,   1
  1181,'ARVA        ', 110.0000,1,     0.000,     0.000,  10,   1,1.04684, -10.3975,   1
  1201,'ARTANE      ', 110.0000,1,     0.000,     0.000,   1,   1,1.05557,  -5.8956,   2
  1211,'BALLYVOU    ', 110.0000,1,     0.000,     0.000,   3,   1,1.04842,  -1.5960,   1
  1212,'BALLYVOU    ', 220.0000,1,     0.000,     0.000,   3,   1,1.05536,  -2.4726,   1
  1221,'ATHY        ', 110.0000,1,     0.000,     0.000,   8,   1,1.05805,  -7.1651,   1
  1231,'BALLYWAT    ', 110.0000,1,     0.000,     0.000,   6,   1,1.05159,  -5.5868,   4
  1251,'BOOLTIAG    ', 110.0000,1,     0.000,     0.000,   4,   1,1.05556,  -6.3080,   2
  1271,'BALTRASN    ', 110.0000,1,     0.000,     0.000,  10,   1,1.04869,  -7.8072,   1
  1281,'BALLYLIC    ', 110.0000,1,     0.000,     0.000,   3,   1,1.03837,  -7.0281,   2
  1301,'BALLYBEG    ', 110.0000,1,     0.000,     0.000,   6,   1,1.05945,  -5.9221,   1
  1311,'CORDAL      ', 110.0000,1,     0.000,     0.000,   3,   1,1.05250,  -0.4732,   1
  1321,'BLAKE       ', 110.0000,1,     0.000,     0.000,   8,   1,1.05621,  -7.2000,   2
  1341,'BINBANE     ', 110.0000,1,     0.000,     0.000,   9,   1,1.03823, -11.8595,   2
  1351,'BARODA      ', 110.0000,1,     0.000,     0.000,   8,   1,1.05543,  -7.6065,   1
  1361,'BALLYDIN    ', 110.0000,1,     0.000,     0.000,   5,   1,1.04121,  -9.3753,   1
  1381,'BARNAHEL    ', 110.0000,1,     0.000,     0.000,   3,   1,1.03569,  -7.3384,   1
  1391,'BARNAHEL    ', 110.0000,1,     0.000,     0.000,   3,   1,1.03506,  -7.4833,   1
  1400,'BELLACOR    ', 110.0000,1,     0.000,     0.000,   9,   1,1.04442,  -5.5760,   1
  1401,'BELLACOR    ', 110.0000,1,     0.000,     0.000,   9,   1,1.04186, -11.0369,   1
  1404,'BELLACOR    ', 380.0000,1,     0.000,     0.000,   9,   1,1.04454,  -5.5487,   1
  1421,'BLACKROC    ', 110.0000,1,     0.000,     0.000,   1,   1,1.05616,  -7.5176,   2
  1431,'BALLYRAG    ', 110.0000,1,     0.000,     0.000,   6,   1,1.04859,  -8.2691,   1
  1441,'BANDON      ', 110.0000,1,     0.000,     0.000,   3,   1,1.02424,  -8.5723,   1
  1451,'CLOGHRAN    ', 110.0000,1,     0.000,     0.000,   1,   1,1.05590,  -6.9651,   1
  1461,'BARRYMOR    ', 110.0000,1,     0.000,     0.000,   5,   1,1.04134,  -8.2508,   2
  1471,'BELCAMP     ', 110.0000,1,     0.000,     0.000,   1,   1,1.06959,  -5.9986,   2
  1472,'BELCAMP     ', 220.0000,1,     0.000,     0.000,   1,   1,1.07562,  -3.6747,   2
  1481,'BUTLERST    ', 110.0000,1,     0.000,     0.000,   5,   1,1.03858,  -7.7641,   1
  1492,'BALLAKEL    ', 220.0000,1,     0.000,     0.000,  10,   1,1.04539,  -5.6734,   1
  1501,'BRINNY      ', 110.0000,1,     0.000,     0.000,   3,   1,1.02403,  -8.5853,   5
  1511,'KNOCKNAG    ', 110.0000,1,     0.000,     0.000,   7,   1,1.05000,  -0.2603,   1
  1541,'BANOGE      ', 110.0000,1,     0.000,     0.000,   6,   1,1.05173,  -5.9856,   1
  1551,'BOGGERAG    ', 110.0000,1,     0.000,     0.000,   3,   1,1.05000,  -0.7782,   1
  1571,'ARDNAGAP    ', 110.0000,1,     0.000,     0.000,   9,   1,1.01892, -12.9989,   2
  1581,'CABRA       ', 110.0000,1,     0.000,     0.000,   1,   1,1.05497,  -5.9335,   2
  1601,'CLASHAVO    ', 110.0000,1,     0.000,     0.000,   3,   1,1.03958,  -6.8279,   1
  1602,'CLASHAVO    ', 220.0000,1,     0.000,     0.000,   3,   1,1.05129,  -3.3475,   1
  1611,'CLONKEEN    ', 110.0000,1,     0.000,     0.000,   7,   1,1.03536,  -7.5027,   1
  1621,'COOLROE     ', 110.0000,1,     0.000,     0.000,   3,   1,1.03095,  -8.0487,   1
  1631,'CORDERRY    ', 110.0000,1,     0.000,     0.000,   9,   1,1.05781,  -8.7119,   1
  1641,'CASHLA      ', 110.0000,1,     0.000,     0.000,   9,   1,1.06640,  -7.4257,   1
  1642,'CASHLA      ', 220.0000,1,     0.000,     0.000,   9,   1,1.06824,  -5.8427,   1
  1651,'CLAHANE     ', 110.0000,1,     0.000,     0.000,   7,   1,1.05228,  -6.0887,   1
  1661,'CASTLEBA    ', 110.0000,1,     0.000,     0.000,   9,   1,1.05000, -11.2918,   1
  1681,'CARRIGAD    ', 110.0000,1,     0.000,     0.000,   3,   1,1.03545,  -7.3360,   1
  1691,'CENTRAL     ', 110.0000,1,     0.000,     0.000,   1,   1,1.05673,  -7.4377,   1
  1701,'CATH_FAL    ', 110.0000,1,     0.000,     0.000,   9,   1,1.05280, -10.9653,   1
  1711,'CROMCAST    ', 110.0000,1,     0.000,     0.000,   1,   1,1.06865,  -6.0775,   1
  1721,'CAHIR       ', 110.0000,1,     0.000,     0.000,   5,   1,1.05645,  -9.6973,   1
  1731,'CROMCAST    ', 110.0000,1,     0.000,     0.000,   1,   1,1.06865,  -6.0775,   1
  1741,'CARRICKM    ', 110.0000,1,     0.000,     0.000,   2,   1,1.05691,  -7.3895,   1
  1742,'CARRICKM    ', 220.0000,1,     0.000,     0.000,   2,   1,1.06901,  -4.6937,   1
  1761,'CLIFF       ', 110.0000,1,     0.000,     0.000,   9,   1,1.05281, -10.9656,   1
  1781,'CASTLEFA    ', 110.0000,1,     0.000,     0.000,   7,   1,1.04960,  -3.4916,   5
  1791,'BRACKLON    ', 110.0000,1,     0.000,     0.000,   8,   1,1.05442,  -7.1948,   1
  1801,'COOKSTOW    ', 110.0000,1,     0.000,     0.000,   1,   1,1.06191,  -5.9416,   2
  1821,'CLOON       ', 110.0000,1,     0.000,     0.000,   9,   1,1.05449,  -8.6667,   1
  1831,'SCREEB      ', 110.0000,1,     0.000,     0.000,   9,   1,1.04952,  -8.6915,   2
  1841,'CRANE       ', 110.0000,1,     0.000,     0.000,   6,   1,1.05032,  -5.7835,   1
  1851,'CHERRYWO    ', 110.0000,1,     0.000,     0.000,   2,   1,1.05400,  -7.5427,   1
  1861,'CARICKON    ', 110.0000,1,     0.000,     0.000,   9,   1,1.05698,  -8.8295,   1
  1871,'COLLEGE     ', 110.0000,1,     0.000,     0.000,   2,   1,1.05811,  -6.7875,   1
  1881,'CHARLEVI    ', 110.0000,1,     0.000,     0.000,   3,   1,1.02242,  -9.0452,   1
  1891,'CAULSTOW    ', 110.0000,1,     0.000,     0.000,  10,   1,1.03998,  -8.6697,   1
  1901,'CARLOW      ', 110.0000,1,     0.000,     0.000,   6,   1,1.06368,  -7.1821,   1
  1911,'CUILLEEN    ', 110.0000,1,     0.000,     0.000,   9,   1,1.05526,  -7.4036,   1
  1921,'COW CROS    ', 110.0000,1,     0.000,     0.000,   3,   1,1.03529,  -7.4387,   1
  1931,'CUNGHILL    ', 110.0000,1,     0.000,     0.000,   9,   1,1.05389,  -9.5792,   4
  1941,'CUSHALIN    ', 110.0000,1,     0.000,     0.000,   8,   1,1.07500,  -4.2835,   1
  1951,'CARROWBE    ', 110.0000,1,     0.000,     0.000,   9,   1,1.03622, -12.2353,   1
  1961,'CASTLEVI    ', 110.0000,1,     0.000,     0.000,   3,   1,1.03417,  -7.6101,   1
  1971,'COOMAGEA    ', 110.0000,1,     0.000,     0.000,   7,   1,1.05000,  -0.2400,   4
  1981,'CORRACLA    ', 110.0000,1,     0.000,     0.000,   9,   1,1.04851, -11.9609,   1
  1991,'CASTLEDO    ', 110.0000,1,     0.000,     0.000,   6,   1,1.05209,  -5.0147,   1
  2001,'CULLENAG    ', 110.0000,1,     0.000,     0.000,   5,   1,1.04321,  -7.4449,   1
  2002,'CULLENAG    ', 220.0000,1,     0.000,     0.000,   5,   1,1.04890,  -4.3226,   1
  2011,'KNOCKNAG    ', 110.0000,1,     0.000,     0.000,   3,   1,1.03545,  -7.3360,   1
  2021,'CITY WES    ', 110.0000,1,     0.000,     0.000,   1,   1,1.04372,  -9.7038,   2
  2041,'CORDUFF     ', 110.0000,1,     0.000,     0.000,   2,   1,1.05866,  -6.7048,   1
  2042,'CORDUFF     ', 220.0000,1,     0.000,     0.000,   2,   1,1.07500,  -3.3596,   1
  2051,'BLACKPOO    ', 110.0000,1,     0.000,     0.000,   3,   1,1.02944,  -8.2339,   1
  2052,'CORDUFFB    ', 220.0000,1,     0.000,     0.000,   2,   1,1.07500,  -3.3596,   1
  2081,'DUNKETTL    ', 110.0000,4,     0.000,     0.000,   3,   1,1.00000,   0.0000,   5
  2090,'WEST GAL    ', 110.0000,1,     0.000,     0.000,   9,   1,1.05417,  -6.4220,   1
  2091,'WEST GAL    ', 110.0000,1,     0.000,     0.000,   9,   1,1.05689,  -8.1540,   1
  2101,'DUNDALK     ', 110.0000,1,     0.000,     0.000,  10,   1,1.04475,  -8.5886,   2
  2111,'UGOOL       ', 110.0000,1,     0.000,     0.000,   9,   1,1.05000,  -5.7596,   1
  2121,'DRUMLINE    ', 110.0000,1,     0.000,     0.000,   4,   1,1.04160,  -8.5096,   1
  2131,'DROMADA     ', 110.0000,1,     0.000,     0.000,   3,   1,1.05000,  -0.4623,   1
  2141,'DUNGARVA    ', 110.0000,1,     0.000,     0.000,   5,   1,1.03202,  -8.6514,   1
  2161,'DOON        ', 110.0000,1,     0.000,     0.000,   5,   1,1.04797,  -9.8670,   1
  2181,'DRYBRIDG    ', 110.0000,1,     0.000,     0.000,  10,   1,1.03976,  -8.7313,   1
  2202,'DUNSTOWN    ', 220.0000,1,     0.000,     0.000,   2,   1,1.07778,  -4.5465,   1
  2204,'DUNSTOWN    ', 380.0000,1,     0.000,     0.000,   2,   1,1.06222,  -3.7813,   1
  2221,'DUNMANWA    ', 110.0000,1,     0.000,     0.000,   3,   1,1.03341,  -7.5561,   1
  2231,'DERRYBRI    ', 110.0000,1,     0.000,     0.000,   4,   1,1.06055,  -5.2913,   2
  2241,'DALLOW      ', 110.0000,1,     0.000,     0.000,   5,   1,1.06427,  -6.3066,   2
  2251,'DARDISTO    ', 110.0000,1,     0.000,     0.000,   1,   1,1.06866,  -6.0779,   2
  2261,'DERRYIRO    ', 110.0000,1,     0.000,     0.000,   8,   1,1.05031,  -7.0722,   1
  2281,'DALTON      ', 110.0000,1,     0.000,     0.000,   9,   1,1.04839, -10.1380,   1
  2301,'DUNFIRTH    ', 110.0000,1,     0.000,     0.000,   8,   1,1.05182,  -7.4983,   2
  2321,'DRUMKEEN    ', 110.0000,1,     0.000,     0.000,   9,   1,1.04584, -11.9324,   1
  2361,'ENNIS       ', 110.0000,1,     0.000,     0.000,   4,   1,1.04578,  -7.7920,   1
  2391,'KILL HIL    ', 110.0000,1,     0.000,     0.000,   5,   1,1.05833,  -9.1636,   1
  2401,'MOUNTLUC    ', 110.0000,1,     0.000,     0.000,   8,   1,1.05785,  -4.6570,   1
  2411,'KNOCKMUL    ', 110.0000,1,     0.000,     0.000,   6,   1,1.03960,  -7.2922,   1
  2481,'FASS EAS    ', 110.0000,1,     0.000,     0.000,   2,   1,1.05665,  -6.1001,   2
  2491,'FASS WES    ', 110.0000,1,     0.000,     0.000,   2,   1,1.05690,  -6.0885,   2
  2521,'FLAGFORD    ', 110.0000,1,     0.000,     0.000,   9,   1,1.05855,  -8.7029,   1
  2522,'FLAGFORD    ', 220.0000,1,     0.000,     0.000,   9,   1,1.07347,  -6.9160,   1
  2524,'FLAGFORD    ', 380.0000,1,     0.000,     0.000,   9,   1,1.03494,  -6.2543,   1
  2541,'FRN ST A    ', 110.0000,1,     0.000,     0.000,   1,   1,1.07279,  -6.1385,   2
  2551,'FRN ST B    ', 110.0000,1,     0.000,     0.000,   1,   1,1.06851,  -7.3395,   2
  2561,'FIN_URBA    ', 110.0000,1,     0.000,     0.000,   2,   1,1.05727,  -5.7688,   2
  2562,'FINGLAS     ', 220.0000,1,     0.000,     0.000,   2,   1,1.07500,  -3.4295,   1
  2563,'FINGLAS2    ', 220.0000,1,     0.000,     0.000,   2,   1,1.07500,  -3.4295,   1
  2571,'FIN_RURA    ', 110.0000,1,     0.000,     0.000,   2,   1,1.06833,  -5.9999,   2
  2581,'KILDONAN    ', 110.0000,1,     0.000,     0.000,   2,   1,1.05733,  -6.8705,   2
  2671,'GARVAGH     ', 110.0000,1,     0.000,     0.000,   9,   1,1.05765,  -8.5141,   4
  2681,'GILRA       ', 110.0000,1,     0.000,     0.000,   9,   1,1.06055,  -8.9876,   2
  2701,'GLASMORE    ', 110.0000,1,     0.000,     0.000,   1,   1,1.05011,  -7.1488,   2
  2721,'GRIFFINR    ', 110.0000,1,     0.000,     0.000,   2,   1,1.06122,  -7.0129,   2
  2731,'GLANLEE     ', 110.0000,1,     0.000,     0.000,   7,   1,1.05005,  -0.2220,   4
  2741,'GREAT IS    ', 110.0000,1,     0.000,     0.000,   6,   1,1.04428,  -6.9220,   1
  2742,'GREAT IS    ', 220.0000,1,     0.000,     0.000,   6,   1,1.05000,  -3.5060,   1
  2744,'GREAT IS    ', 380.0000,1,     0.000,     0.000,   6,   1,1.06693,  -3.7996,   1
  2761,'GRANGE      ', 110.0000,1,     0.000,     0.000,   1,   1,1.06840,  -6.0942,   2
  2771,'GARROW      ', 110.0000,1,     0.000,     0.000,   7,   1,1.04837,  -0.8989,   7
  2780,'GALWAY      ', 110.0000,1,     0.000,     0.000,   9,   1,1.05973,  -7.6933,   1
  2781,'GALWAY      ', 110.0000,1,     0.000,     0.000,   9,   1,1.05973,  -7.6933,   1
  2801,'GOLAGH      ', 110.0000,1,     0.000,     0.000,   9,   1,1.04823, -11.0445,   4
  2821,'GORTAWEE    ', 110.0000,1,     0.000,     0.000,   9,   1,1.04692, -12.0165,   1
  2841,'GORMAN      ', 110.0000,1,     0.000,     0.000,  10,   1,1.03928,  -8.7307,   1
  2842,'GORMAN      ', 220.0000,1,     0.000,     0.000,  10,   1,1.05202,  -6.1277,   1
  2852,'GLANAGOW    ', 220.0000,1,     0.000,     0.000,   3,   1,1.04882,  -3.8975,   1
  2861,'GRANGE C    ', 110.0000,1,     0.000,     0.000,   1,   1,1.04449,  -9.5127,   2
  2870,'CLOGHER     ', 110.0000,1,     0.000,     0.000,   9,   1,1.04963, -11.0285,   1
  2871,'CLOGHER     ', 110.0000,1,     0.000,     0.000,   9,   1,1.04963, -11.0285,   1
  2881,'GLENLARA    ', 110.0000,1,     0.000,     0.000,   3,   1,1.01612,  -9.2586,   2
  2941,'HAROLDS     ', 110.0000,1,     0.000,     0.000,   1,   1,1.07309,  -6.1420,   2
  2951,'HEUSTON     ', 110.0000,1,     0.000,     0.000,   1,   1,1.06873,  -7.3239,   2
  2962,'HUNTSTOW    ', 220.0000,1,     0.000,     0.000,   2,   1,1.07497,  -3.3375,   4
  2972,'HUNTSTOW    ', 220.0000,1,     0.000,     0.000,   2,   1,1.07530,  -3.0909,   4
  2981,'HARTNETT    ', 110.0000,1,     0.000,     0.000,   3,   1,1.03476,  -7.3259,   2
  3061,'INISCARR    ', 110.0000,1,     0.000,     0.000,   3,   1,1.03162,  -7.9467,   1
  3081,'INCH_CIT    ', 110.0000,1,     0.000,     0.000,   2,   1,1.06911,  -7.2838,   2
  3082,'INCHICOR    ', 220.0000,1,     0.000,     0.000,   2,   1,1.07504,  -5.2917,   1
  3091,'INCH_COU    ', 110.0000,1,     0.000,     0.000,   2,   1,1.04956,  -9.3067,   2
  3101,'IKERRIN     ', 110.0000,1,     0.000,     0.000,   5,   1,1.05181,  -8.7304,   2
  3122,'IRISHTOW    ', 220.0000,1,     0.000,     0.000,   2,   1,1.07500,  -4.4401,   1
  3190,'NORTH KE    ', 110.0000,1,     0.000,     0.000,   7,   1,1.05206,  -5.8821,   1
  3191,'NORTH KE    ', 110.0000,1,     0.000,     0.000,   7,   1,1.05317,  -1.1834,   1
  3192,'NORTH KE    ', 220.0000,1,     0.000,     0.000,   7,   1,1.07018,  -2.5713,   1
  3194,'NORTH KE    ', 380.0000,1,     0.000,     0.000,   7,   1,1.07435,  -2.0364,   1
  3200,'KNOCKRAH    ', 110.0000,1,     0.000,     0.000,   3,   1,1.05064,  -4.6755,   1
  3201,'KNOCKRAH    ', 110.0000,1,     0.000,     0.000,   3,   1,1.03941,  -7.3475,   1
  3202,'KNOCKRAH    ', 220.0000,1,     0.000,     0.000,   3,   1,1.05064,  -4.6755,   1
  3203,'KNOCKRAH    ', 220.0000,1,     0.000,     0.000,   3,   1,1.05064,  -4.6755,   1
  3204,'KNOCKRAH    ', 380.0000,1,     0.000,     0.000,   3,   1,1.06259,  -4.2029,   1
  3209,'KNOCKRAH    ', 110.0000,1,     0.000,     0.000,   3,   1,1.03941,  -7.3475,   1
  3211,'KNOCKAVA    ', 110.0000,1,     0.000,     0.000,   4,   1,1.06008,  -5.3565,   1
  3221,'KILBARRY    ', 110.0000,1,     0.000,     0.000,   3,   1,1.02948,  -8.2312,   1
  3241,'KILTEEL     ', 110.0000,1,     0.000,     0.000,   8,   1,1.06163,  -8.0254,   2
  3251,'REAMORE     ', 110.0000,1,     0.000,     0.000,   7,   1,1.05247,  -6.2947,   1
  3261,'KILKENNY    ', 110.0000,1,     0.000,     0.000,   6,   1,1.04893,  -8.7218,   1
  3281,'KILLONAN    ', 110.0000,1,     0.000,     0.000,   7,   1,1.04381,  -7.7224,   1
  3282,'KILLONAN    ', 220.0000,1,     0.000,     0.000,   7,   1,1.05596,  -5.8384,   1
  3301,'KNOCKERA    ', 110.0000,1,     0.000,     0.000,   7,   1,1.03196,  -7.9597,   1
  3321,'KNOCKUMB    ', 110.0000,1,     0.000,     0.000,  10,   1,1.03068,  -9.2940,   5
  3330,'BALLYNAH    ', 110.0000,1,     0.000,     0.000,   3,   1,1.05138,  -0.9232,   1
  3331,'BALLYNAH    ', 110.0000,1,     0.000,     0.000,   3,   1,1.05138,  -0.9232,   1
  3332,'BALLYNAH    ', 220.0000,1,     0.000,     0.000,   3,   1,1.05890,  -2.1607,   1
  3341,'KELLIS      ', 110.0000,1,     0.000,     0.000,   6,   1,1.06791,  -7.0670,   1
  3342,'KELLIS      ', 220.0000,1,     0.000,     0.000,   6,   1,1.05489,  -4.9784,   1
  3361,'KILTOY      ', 110.0000,1,     0.000,     0.000,   9,   1,1.04101, -12.5525,   5
  3381,'KINNEGAD    ', 110.0000,1,     0.000,     0.000,   8,   1,1.04818,  -7.6482,   1
  3391,'KNOCKACU    ', 110.0000,1,     0.000,     0.000,   3,   1,1.05000,   0.1453,   1
...
0 / END OF BUS DATA, BEGIN LOAD DATA
    10,'LD',1,   2,   1,    47.720,    32.790,     0.000,     0.000,     0.000,     0.000,   2
    11,'LD',1,   2,   1,    31.980,    22.710,     0.000,     0.000,     0.000,     0.000,   2
    12,'LD',1,   1,   1,     5.410,     1.780,     0.000,     0.000,     0.000,     0.000,   2
    13,'LD',1,   1,   1,     9.090,     3.120,     0.000,     0.000,     0.000,     0.000,   2
    14,'LD',1,   2,   1,    45.040,    14.810,     0.000,     0.000,     0.000,     0.000,   2
    15,'LD',1,   2,   1,    47.280,    15.570,     0.000,     0.000,     0.000,     0.000,   2
  1041,'LD',1,   3,   1,     1.430,     0.070,     0.000,     0.000,     0.000,     0.000,   2
  1101,'I ',1,   5,   2,    11.000,     6.000,     0.000,     0.000,     0.000,     0.000,   5
  1101,'MI',1,   5,   2,     5.620,    -1.020,     0.000,     0.000,     0.000,     0.000,   5
  4341,'I ',1,   3,   2,     1.300,     0.390,     0.000,     0.000,     0.000,     0.000,   5
 10204,'LD',1,   4,   1,    13.880,     7.770,     0.000,     0.000,     0.000,     0.000,   2
 10205,'LD',1,   4,   1,    13.880,     7.770,     0.000,     0.000,     0.000,     0.000,   2
 10470,'HL',0,   3,   1,    11.070,     3.980,     0.000,     0.000,     0.000,     0.000,   1
 10471,'HL',0,   3,   1,    11.990,     4.310,     0.000,     0.000,     0.000,     0.000,   3
 10602,'LD',1,   9,   1,     5.590,     1.370,     0.000,     0.000,     0.000,     0.000,   2
 10801,'LD',1,   7,   1,     5.160,     1.140,     0.000,     0.000,     0.000,     0.000,   2
 10901,'I ',1,   1,   2,     9.500,     3.120,     0.000,     0.000,     0.000,     0.000,   5
 10901,'LD',1,   1,   1,     6.200,     2.020,     0.000,     0.000,     0.000,     0.000,   2
 11201,'LD',1,   6,   1,     6.550,     2.150,     0.000,     0.000,     0.000,     0.000,   2
 11204,'LD',1,   6,   1,    10.640,     3.500,     0.000,     0.000,     0.000,     0.000,   2
 11404,'LD',1,   9,   1,    55.120,    11.900,     0.000,     0.000,     0.000,     0.000,   2
 12001,'LD',1,   1,   1,    12.600,     1.940,     0.000,     0.000,     0.000,     0.000,   2
 12201,'LD',1,   8,   1,    14.060,     3.720,     0.000,     0.000,     0.000,     0.000,   2
 12702,'LD',1,  10,   1,    12.390,     1.670,     0.000,     0.000,     0.000,     0.000,   2
 12804,'LD',1,   3,   1,     4.170,     1.340,     0.000,     0.000,     0.000,     0.000,   2
 13001,'LD',1,   6,   1,    11.000,     3.590,     0.000,     0.000,     0.000,     0.000,   2
 13204,'LD',1,   8,   1,     7.530,     1.370,     0.000,     0.000,     0.000,     0.000,   2
 13404,'LD',1,   9,   1,    15.490,     5.080,     0.000,     0.000,     0.000,     0.000,   2
 13501,'I ',1,   8,   2,     9.500,     2.850,     0.000,     0.000,     0.000,     0.000,   5
 13501,'LD',1,   8,   1,    12.000,     3.840,     0.000,     0.000,     0.000,     0.000,   2
 13601,'I ',1,   5,   2,     5.290,     1.460,     0.000,     0.000,     0.000,     0.000,   5
 13601,'MI',1,   5,   2,     3.920,     1.300,     0.000,     0.000,     0.000,     0.000,   5
 13604,'LD',1,   5,   1,    12.040,     4.470,     0.000,     0.000,     0.000,     0.000,   2
 13802,'LD',1,   3,   1,    20.900,     5.860,     0.000,     0.000,     0.000,     0.000,   2
 13804,'LD',1,   3,   1,    17.810,     5.040,     0.000,     0.000,     0.000,     0.000,   2
 14004,'LD',1,   9,   1,    10.020,     4.070,     0.000,     0.000,     0.000,     0.000,   2
 14204,'LD',1,   1,   1,    29.970,    -0.050,     0.000,     0.000,     0.000,     0.000,   2
 14304,'LD',1,   6,   1,    23.430,     7.680,     0.000,     0.000,     0.000,     0.000,   2
 14401,'LD',1,   3,   1,     5.450,     2.050,     0.000,     0.000,     0.000,     0.000,   2
 14404,'LD',1,   3,   1,    36.780,    12.880,     0.000,     0.000,     0.000,     0.000,   2
 14502,'I ',1,   1,   2,    23.750,     7.800,     0.000,     0.000,     0.000,     0.000,   5
 14604,'LD',1,   5,   1,    22.980,     4.770,     0.000,     0.000,     0.000,     0.000,   2
 14804,'LD',1,   5,   1,    32.790,     7.090,     0.000,     0.000,     0.000,     0.000,   2
 14902,'HL',0,  10,   1,     4.940,     1.780,     0.000,     0.000,     0.000,     0.000,   1
 15001,'I ',1,   3,   2,     4.590,     1.700,     0.000,     0.000,     0.000,     0.000,   5
 15001,'MI',1,   3,   2,     1.580,     0.150,     0.000,     0.000,     0.000,     0.000,   5
 15402,'LD',1,   6,   1,    15.080,     4.960,     0.000,     0.000,     0.000,     0.000,   2
 15704,'LD',1,   9,   1,    14.270,     4.730,     0.000,     0.000,     0.000,     0.000,   2
 15801,'LD',1,   1,   1,     7.590,     2.500,     0.000,     0.000,     0.000,     0.000,   2
 16202,'LD',1,   3,   1,    14.380,     1.520,     0.000,     0.000,     0.000,     0.000,   2
 16604,'LD',1,   9,   1,    31.030,     8.270,     0.000,     0.000,     0.000,     0.000,   2
 16901,'LD',1,   1,   1,     8.580,     1.340,     0.000,     0.000,     0.000,     0.000,   2
 17004,'LD',1,   9,   1,     4.600,     1.510,     0.000,     0.000,     0.000,     0.000,   2
 17204,'LD',1,   5,   1,    32.970,     9.390,     0.000,     0.000,     0.000,     0.000,   2
 17404,'LD',1,   2,   1,    56.810,    29.600,     0.000,     0.000,     0.000,     0.000,   2
 17802,'I ',1,   7,   2,    49.000,    14.700,     0.000,     0.000,     0.000,     0.000,   5
 17901,'LD',1,   8,   1,    12.480,     4.130,     0.000,     0.000,     0.000,     0.000,   2
 18001,'LD',1,   1,   1,     3.840,     1.250,     0.000,     0.000,     0.000,     0.000,   2
 18004,'LD',1,   1,   1,    52.480,     9.280,     0.000,     0.000,     0.000,     0.000,   2
 18204,'LD',1,   9,   1,    25.050,    10.210,     0.000,     0.000,     0.000,     0.000,   2
 18304,'LD',1,   9,   1,    13.440,     4.420,     0.000,     0.000,     0.000,     0.000,   2
 18402,'LD',1,   6,   1,     7.950,     2.540,     0.000,     0.000,     0.000,     0.000,   2
 18404,'LD',1,   6,   1,    19.110,     5.110,     0.000,     0.000,     0.000,     0.000,   2
 18504,'I ',1,   2,   2,    19.000,     6.240,     0.000,     0.000,     0.000,     0.000,   5
 18504,'LD',1,   2,   1,    25.540,     8.390,     0.000,     0.000,     0.000,     0.000,   2
 18604,'LD',1,   9,   1,    27.360,     6.160,     0.000,     0.000,     0.000,     0.000,   2
 18701,'LD',1,   2,   1,    25.200,     4.630,     0.000,     0.000,     0.000,     0.000,   2
 18804,'LD',1,   3,   1,    16.070,     5.620,     0.000,     0.000,     0.000,     0.000,   2
 18901,'HL',0,  10,   1,     0.980,     0.350,     0.000,     0.000,     0.000,     0.000,   1
 19004,'LD',1,   6,   1,    29.170,     9.590,     0.000,     0.000,     0.000,     0.000,   2
 19204,'LD',1,   3,   1,    15.510,     2.890,     0.000,     0.000,     0.000,     0.000,   2
 19471,'HL',1,   8,   1,    11.700,     4.210,     0.000,     0.000,     0.000,     0.000,   4
 19504,'LD',1,   9,   1,    24.370,     6.490,     0.000,     0.000,     0.000,     0.000,   2
 19601,'LD',1,   3,   1,    29.900,     8.010,     0.000,     0.000,     0.000,     0.000,   2
 20201,'LD',1,   1,   1,    30.850,    11.630,     0.000,     0.000,     0.000,     0.000,   2
 20501,'LD',1,   3,   1,    19.210,     6.050,     0.000,     0.000,     0.000,     0.000,   2
 21004,'LD',1,  10,   1,    31.140,     5.550,     0.000,     0.000,     0.000,     0.000,   2
 21202,'LD',1,   4,   1,    10.370,     3.360,     0.000,     0.000,     0.000,     0.000,   2
 21204,'LD',1,   4,   1,    21.620,     7.610,     0.000,     0.000,     0.000,     0.000,   2
 21404,'LD',1,   5,   1,    36.010,     7.090,     0.000,     0.000,     0.000,     0.000,   2
 21604,'LD',1,   5,   1,    13.730,     4.510,     0.000,     0.000,     0.000,     0.000,   2
 21804,'LD',1,  10,   1,    65.300,    17.180,     0.000,     0.000,     0.000,     0.000,   2
 22204,'LD',1,   3,   1,    20.850,    10.190,     0.000,     0.000,     0.000,     0.000,   2
 22404,'LD',1,   5,   1,    16.300,     4.990,     0.000,     0.000,     0.000,     0.000,   2
 22501,'I ',1,   1,   2,    10.450,     3.434,     0.000,     0.000,     0.000,     0.000,   5
 22671,'HL',0,   8,   1,     0.300,     0.100,     0.000,     0.000,     0.000,     0.000,   1
 22672,'HL',0,   8,   1,     0.300,     0.100,     0.000,     0.000,     0.000,     0.000,   1
 22804,'LD',1,   9,   1,    22.450,     6.250,     0.000,     0.000,     0.000,     0.000,   2
 23001,'LD',1,   8,   1,     6.710,     0.640,     0.000,     0.000,     0.000,     0.000,   2
 23604,'LD',1,   4,   1,    53.960,    14.990,     0.000,     0.000,     0.000,     0.000,   2
 24104,'LD',1,   6,   1,    15.510,     5.090,     0.000,     0.000,     0.000,     0.000,   2
 24804,'LD',1,   2,   1,    43.510,    17.120,     0.000,     0.000,     0.000,     0.000,   2
 25604,'LD',1,   2,   1,    55.390,    11.460,     0.000,     0.000,     0.000,     0.000,   2
 26802,'I ',1,   9,   2,    10.440,     3.130,     0.000,     0.000,     0.000,     0.000,   5
 26802,'MI',1,   9,   2,     0.060,     0.020,     0.000,     0.000,     0.000,     0.000,   5
 27004,'LD',1,   1,   1,    61.680,    18.240,     0.000,     0.000,     0.000,     0.000,   2
 27204,'LD',1,   2,   1,    42.350,    12.530,     0.000,     0.000,     0.000,     0.000,   2
 27404,'LD',1,   6,   1,     1.870,     0.620,     0.000,     0.000,     0.000,     0.000,   2
 27474,'HL',1,   6,   1,     5.970,     2.150,     0.000,     0.000,     0.000,     0.000,   1
 27604,'LD',1,   1,   1,    41.430,    11.270,     0.000,     0.000,     0.000,     0.000,   2
 27801,'LD',1,   9,   1,    23.260,     6.480,     0.000,     0.000,     0.000,     0.000,   2
 27804,'LD',1,   9,   1,    49.890,     5.910,     0.000,     0.000,     0.000,     0.000,   2
 28201,'I ',1,   9,   2,    20.900,     6.270,     0.000,     0.000,     0.000,     0.000,   5
 28204,'LD',1,   9,   1,    13.670,     4.300,     0.000,     0.000,     0.000,     0.000,   2
 28571,'HL',1,   3,   1,     3.960,     1.420,     0.000,     0.000,     0.000,     0.000,   1
 28601,'I ',1,   1,   2,     9.000,     2.700,     0.000,     0.000,     0.000,     0.000,   5
 28601,'LD',1,   1,   1,    11.310,     1.440,     0.000,     0.000,     0.000,     0.000,   2
 28604,'LD',1,   1,   1,    48.410,    12.510,     0.000,     0.000,     0.000,     0.000,   2
 28611,'I ',1,   1,   2,     9.000,     2.700,     0.000,     0.000,     0.000,     0.000,   5
 28804,'LD',1,   3,   1,    13.220,     3.760,     0.000,     0.000,     0.000,     0.000,   2
 29401,'LD',1,   1,   1,    23.380,     6.480,     0.000,     0.000,     0.000,     0.000,   2
 29501,'LD',1,   1,   1,     5.470,     1.730,     0.000,     0.000,     0.000,     0.000,   2
 29672,'HL',0,   2,   1,     7.180,     2.580,     0.000,     0.000,     0.000,     0.000,   4
 29801,'LD',1,   3,   1,     8.560,     2.780,     0.000,     0.000,     0.000,     0.000,   2
 30804,'LD',1,   2,   1,    35.940,    11.900,     0.000,     0.000,     0.000,     0.000,   2
 31004,'LD',1,   5,   1,    36.000,    12.830,     0.000,     0.000,     0.000,     0.000,   2
 31271,'HL',1,   2,   1,     5.550,     1.990,     0.000,     0.000,     0.000,     0.000,   4
 32201,'LD',1,   3,   1,    11.860,     2.770,     0.000,     0.000,     0.000,     0.000,   2
 32204,'LD',1,   3,   1,    51.890,     6.590,     0.000,     0.000,     0.000,     0.000,   2
 32404,'LD',1,   8,   1,    31.460,    12.400,     0.000,     0.000,     0.000,     0.000,   2
 32604,'LD',1,   6,   1,    56.230,    23.650,     0.000,     0.000,     0.000,     0.000,   2
 33004,'LD',1,   7,   1,    38.890,    11.430,     0.000,     0.000,     0.000,     0.000,   2
 33201,'I ',1,  10,   2,    23.000,     6.900,     0.000,     0.000,     0.000,     0.000,   5
 33201,'MI',1,  10,   2,     6.440,     1.930,     0.000,     0.000,     0.000,     0.000,   5
 33801,'I ',1,   8,   2,    10.220,     3.060,     0.000,     0.000,     0.000,     0.000,   5
 33801,'MI',1,   8,   2,     1.500,     0.450,     0.000,     0.000,     0.000,     0.000,   5
 34001,'LD',1,   5,   1,    10.940,     3.050,     0.000,     0.000,     0.000,     0.000,   2
 34201,'LD',1,   1,   1,    15.560,     4.850,     0.000,     0.000,     0.000,     0.000,   2
 34301,'I ',1,   1,   2,    23.750,     7.120,     0.000,     0.000,     0.000,     0.000,   5
 35004,'LD',1,   9,   1,    12.710,     3.960,     0.000,     0.000,     0.000,     0.000,   2
 35074,'HL',1,   9,   1,     9.000,     3.240,     0.000,     0.000,     0.000,     0.000,   3
 35404,'LD',1,   7,   1,    78.250,    15.450,     0.000,     0.000,     0.000,     0.000,   2
 35604,'LD',1,  10,   1,    27.060,     8.040,     0.000,     0.000,     0.000,     0.000,   2
 35804,'LD',1,   9,   1,    41.470,    10.200,     0.000,     0.000,     0.000,     0.000,   2
 36001,'LD',1,   3,   1,    25.000,     7.050,     0.000,     0.000,     0.000,     0.000,   2
 36201,'I ',1,   5,   2,    16.600,     3.600,     0.000,     0.000,     0.000,     0.000,   5
 36201,'MI',1,   5,   2,     2.390,     2.100,     0.000,     0.000,     0.000,     0.000,   5
 37501,'LD',1,   1,   1,    23.440,     4.250,     0.000,     0.000,     0.000,     0.000,   2
 37601,'LD',1,   1,   1,    23.160,     4.320,     0.000,     0.000,     0.000,     0.000,   2
 37602,'I ',1,   1,   2,     5.000,     1.500,     0.000,     0.000,     0.000,     0.000,   5
 37602,'MI',1,   1,   2,     5.440,     1.630,     0.000,     0.000,     0.000,     0.000,   5
 38001,'LD',1,   3,   1,    12.260,     2.750,     0.000,     0.000,     0.000,     0.000,   2
 38004,'LD',1,   3,   1,     6.870,     1.860,     0.000,     0.000,     0.000,     0.000,   2
 38204,'LD',1,  10,   1,    27.840,    12.960,     0.000,     0.000,     0.000,     0.000,   2
 38601,'LD',1,   1,   1,     6.060,     1.010,     0.000,     0.000,     0.000,     0.000,   2
 38701,'LD',1,   1,   1,     8.380,     1.240,     0.000,     0.000,     0.000,     0.000,   2
 38804,'LD',1,   3,   1,     4.490,    -0.120,     0.000,     0.000,     0.000,     0.000,   2
 39471,'HL',1,   4,   1,    17.910,     6.440,     0.000,     0.000,     0.000,     0.000,   3
 39472,'HL',1,   4,   1,    17.910,     6.440,     0.000,     0.000,     0.000,     0.000,   3
 39473,'HL',1,   4,   1,    17.910,     6.440,     0.000,     0.000,     0.000,     0.000,   3
 39601,'LD',1,   3,   1,    17.860,     3.750,     0.000,     0.000,     0.000,     0.000,   2
 39675,'HL',0,   3,   1,     5.000,     1.800,     0.000,     0.000,     0.000,     0.000,   3
 39801,'I ',1,   7,   2,    22.000,     6.600,     0.000,     0.000,     0.000,     0.000,   5
 39801,'MI',1,   7,   2,     1.500,     0.450,     0.000,     0.000,     0.000,     0.000,   5
 40001,'LD',1,   9,   1,    13.680,     4.320,     0.000,     0.000,     0.000,     0.000,   2
 40004,'LD',1,   9,   1,    27.060,     8.670,     0.000,     0.000,     0.000,     0.000,   2
 40204,'LD',1,   3,   1,    19.570,     6.810,     0.000,     0.000,     0.000,     0.000,   2
 40404,'LD',1,   9,   1,    19.540,     4.370,     0.000,     0.000,     0.000,     0.000,   2
 40602,'I ',1,  10,   2,     5.180,     1.550,     0.000,     0.000,     0.000,     0.000,   5
 40602,'MI',1,  10,   2,     2.420,     0.730,     0.000,     0.000,     0.000,     0.000,   5
 40604,'LD',1,  10,   1,    28.280,     9.290,     0.000,     0.000,     0.000,     0.000,   2
 40801,'LD',1,   8,   1,     8.910,     1.870,     0.000,     0.000,     0.000,     0.000,   2
 41002,'I ',1,   1,   2,    18.000,     5.900,     0.000,     0.000,     0.000,     0.000,   5
 41102,'I ',1,   1,   2,    24.000,    11.630,     0.000,     0.000,     0.000,     0.000,   5
 42004,'LD',1,   8,   1,    21.190,     6.250,     0.000,     0.000,     0.000,     0.000,   2
 42102,'LD',1,   1,   1,    14.740,     2.360,     0.000,     0.000,     0.000,     0.000,   2
 42204,'LD',1,  10,   1,    46.690,    12.660,     0.000,     0.000,     0.000,     0.000,   2
 42501,'HL',0,   6,   1,     3.970,     1.430,     0.000,     0.000,     0.000,     0.000,   1
 42604,'LD',1,   7,   1,    27.370,     9.030,     0.000,     0.000,     0.000,     0.000,   2
 42802,'I ',1,   1,   2,    26.000,     7.800,     0.000,     0.000,     0.000,     0.000,   5
 43604,'LD',1,   7,   1,    22.740,     5.150,     0.000,     0.000,     0.000,     0.000,   2
 44001,'LD',1,   1,   1,    16.590,     2.420,     0.000,     0.000,     0.000,     0.000,   2
 44802,'LD',1,   8,   1,     9.120,     2.980,     0.000,     0.000,     0.000,     0.000,   2
 44804,'LD',1,   8,   1,    33.550,    10.670,     0.000,     0.000,     0.000,     0.000,   2
 44901,'LD',1,   1,   1,    11.730,     1.190,     0.000,     0.000,     0.000,     0.000,   2
 45001,'I ',1,  10,   2,    29.000,     9.100,     0.000,     0.000,     0.000,     0.000,   5
 45001,'MI',1,  10,   2,     3.290,     0.580,     0.000,     0.000,     0.000,     0.000,   5
 45101,'LD',1,   1,   1,    13.070,     2.360,     0.000,     0.000,     0.000,     0.000,   2
 46102,'I ',1,   7,   2,    61.000,    18.300,     0.000,     0.000,     0.000,     0.000,   5
 46210,'I ',1,   2,   2,    34.840,    10.450,     0.000,     0.000,     0.000,     0.000,   5
 46214,'I ',1,   2,   2,    34.840,    10.450,     0.000,     0.000,     0.000,     0.000,   5
 46224,'I ',1,   2,   2,    34.840,    10.450,     0.000,     0.000,     0.000,     0.000,   5
 46501,'LD',1,   1,   1,     5.190,     3.280,     0.000,     0.000,     0.000,     0.000,   2
 46511,'HL',1,   1,   1,     9.360,     3.360,     0.000,     0.000,     0.000,     0.000,   1
 46804,'LD',1,   7,   1,    19.870,     7.490,     0.000,     0.000,     0.000,     0.000,   2
 47004,'LD',1,   9,   1,    27.130,    10.300,     0.000,     0.000,     0.000,     0.000,   2
 47402,'I ',1,   2,   2,    15.200,     4.560,     0.000,     0.000,     0.000,     0.000,   5
 47601,'LD',1,   3,   1,     2.280,     0.250,     0.000,     0.000,     0.000,     0.000,   2
 49001,'I ',1,   6,   2,     2.290,     0.680,     0.000,     0.000,     0.000,     0.000,   5
 49474,'HL',1,   5,   1,    12.890,     4.640,     0.000,     0.000,     0.000,     0.000,   3
 49501,'LD',1,   9,   1,    16.150,     2.210,     0.000,     0.000,     0.000,     0.000,   2
 49504,'LD',1,   9,   1,    24.970,     7.110,     0.000,     0.000,     0.000,     0.000,   2
 49604,'LD',1,  10,   1,    53.570,    19.780,     0.000,     0.000,     0.000,     0.000,   2
 49804,'LD',1,   9,   1,    50.450,    12.140,     0.000,     0.000,     0.000,     0.000,   2
 50004,'LD',1,   9,   1,    19.730,     6.220,     0.000,     0.000,     0.000,     0.000,   2
 50276,'HL',1,   2,   1,     5.880,     2.110,     0.000,     0.000,     0.000,     0.000,   3
 50301,'LD',1,   1,   1,    12.480,     4.100,     0.000,     0.000,     0.000,     0.000,   2
 50573,'HL',1,   7,   1,     0.980,     0.350,     0.000,     0.000,     0.000,     0.000,   4
 50574,'HL',1,   7,   1,     0.980,     0.350,     0.000,     0.000,     0.000,     0.000,   4
 50604,'LD',1,   6,   1,    17.150,     6.530,     0.000,     0.000,     0.000,     0.000,   2
...
0 / END OF LOAD DATA, BEGIN GENERATOR DATA
 10271,'1 ',    21.000,     0.000,    15.000,    -7.000,1.05000,  1021,    34.000,   0.00000,   0.22000,   0.00000,   0.00000,1.00000,0,   15.0,    21.000,     5.000,   3,1.0000
 10272,'2 ',    22.000,     0.000,    15.000,    -7.000,1.05000,  1021,    34.000,   0.00000,   0.22000,   0.00000,   0.00000,1.00000,0,   15.0,    22.000,     5.000,   3,1.0000
 10273,'3 ',    19.000,     0.000,    15.000,    -7.000,1.05000,  1021,    34.000,   0.00000,   0.22000,   0.00000,   0.00000,1.00000,0,   15.0,    19.000,     5.000,   3,1.0000
 10274,'4 ',    24.000,     0.000,    15.000,    -7.000,1.05000,  1021,    34.000,   0.00000,   0.22000,   0.00000,   0.00000,1.00000,0,   15.0,    24.000,     5.000,   3,1.0000
 10275,'3 ',     2.250,     0.000,     0.000,     0.000,1.05000,     0,     8.350,   0.00920,   0.16210,   0.00000,   0.00000,1.00000,1,    2.3,     7.500,     0.000,   7,1.0000
 10276,'2 ',     0.198,     0.000,     0.000,     0.000,1.05000,     0,     0.850,   0.00730,   0.13500,   0.00000,   0.00000,1.00000,1,    0.2,     0.660,     0.000,   7,1.0000
 10470,'1 ',   443.000,     0.000,   270.000,  -170.000,1.07500,  1062,   500.000,   0.00270,   0.18000,   0.00000,   0.00000,1.00000,0,  250.0,   443.000,   222.000,   1,1.0000
 10471,'1 ',   270.000,     0.000,   159.000,   -75.000,1.07500,  1062,   318.800,   0.00000,   0.22500,   0.00000,   0.00000,1.00000,0,  153.0,   270.000,    40.000,   3,1.0000
 10472,'11',    90.000,     0.000,    60.000,   -30.000,1.07500,  1062,   100.900,   0.00000,   0.12500,   0.00000,   0.00000,1.00000,0,   60.0,    90.000,    13.000,   3,1.0000
 10473,'12',    90.000,     0.000,    60.000,   -30.000,1.07500,  1062,   100.900,   0.00000,   0.12500,   0.00000,   0.00000,1.00000,0,   60.0,    90.000,    13.000,   3,1.0000
 10474,'14',    90.000,     0.000,    60.000,   -30.000,1.07500,  1062,   100.900,   0.00000,   0.12500,   0.00000,   0.00000,1.00000,0,   60.0,    90.000,    13.000,   3,1.0000
 10671,'2 ',     1.440,    -1.940,    -1.940,    -1.940,1.04000,     0,     4.800,   0.02040,   0.33060,   0.00000,   0.00000,1.00000,1,    1.5,     4.800,     0.000,   7,1.0000
 10672,'3 ',     1.500,    -2.000,    -2.000,    -2.000,1.04000,     0,     6.000,   0.02040,   0.33060,   0.00000,   0.00000,1.00000,1,    1.6,     5.000,     0.000,   7,1.0000
 10673,'1 ',     0.360,    -0.480,    -0.480,    -0.480,1.05000,     0,     1.200,   0.02040,   0.33060,   0.00000,   0.00000,1.00000,1,    0.4,     1.200,     0.000,   7,1.0000
 10674,'5 ',     1.380,    -1.951,    -1.770,    -2.300,1.04000,     0,     4.600,   0.02570,   0.73700,   0.00000,   0.00000,1.00000,1,    1.7,     4.600,     0.000,   7,1.0000
 11204,'1 ',     1.000,     0.000,     0.000,     0.000,1.00000,     0,     1.600,   0.00000,   0.20000,   0.01000,   0.06000,1.00000,0,  100.0,     1.000,     0.000,   2,1.0000
 11271,'1 ',     7.560,     0.000,     0.000,     0.000,1.04000,     0,    28.000,   0.00320,   0.12400,   0.00000,   0.00000,1.00000,1,    7.9,    25.200,     0.000,   7,1.0000
 11370,'1 ',     6.600,    -3.204,     5.590,    -5.590,1.05000,  2131,    30.000,   0.00000,   0.57860,   0.00000,   0.00000,1.00000,1,    5.7,    22.000,     0.000,   7,1.0000
 11371,'1 ',    15.300,   -11.243,    20.000,   -20.000,1.05000,  2131,    66.000,   0.00000,   0.57860,   0.00000,   0.00000,1.00000,1,   20.0,    51.000,     0.000,   7,1.0000
 11374,'DW',     1.200,    -0.675,     1.310,    -1.310,1.05000,  2131,     4.000,   0.00900,   0.14800,   0.00000,   0.00000,1.00000,1,    1.2,     4.000,     0.000,   7,1.0000
 11375,'DW',     1.080,    -0.618,     1.180,    -1.180,1.05000,  2131,     4.000,   0.00900,   0.14800,   0.00000,   0.00000,1.00000,1,    1.1,     3.600,     0.000,   7,1.0000
 12371,'1 ',     9.450,    -7.000,     7.000,    -7.000,1.05000,  1231,    32.000,   0.02570,   0.73700,   0.00000,   0.00000,1.00000,1,    7.0,    31.500,     0.000,   7,1.0000
 12372,'2 ',     3.150,     0.000,     0.000,     0.000,1.05000,  1231,    10.000,   0.02570,   0.73700,   0.00000,   0.00000,1.00000,1,    3.5,    10.500,     0.000,   7,1.0000
 12571,'1 ',     5.835,     0.000,     0.000,     0.000,1.05000,  1251,    25.050,   0.00920,   0.16210,   0.00000,   0.00000,1.00000,1,    6.4,    19.450,     0.000,   7,1.0000
 12572,'TW',     0.900,    -0.990,     0.990,    -0.990,1.05000,  1251,     3.340,   0.00920,   0.16210,   0.00000,   0.00000,1.00000,1,    1.0,     3.000,     0.000,   7,1.0000
 12573,'TW',     2.700,    -2.960,     2.960,    -2.960,1.05000,  1251,    10.020,   0.00920,   0.16210,   0.00000,   0.00000,1.00000,1,    3.0,     9.000,     0.000,   7,1.0000
 12871,'DW',     0.690,     0.000,     0.000,    -0.660,1.05000,  1281,     2.300,   0.02570,   0.73700,   0.00000,   0.00000,1.00000,1,    0.6,     2.300,     0.000,   7,1.0000
 12872,'DW',     2.520,     0.000,     0.000,    -2.760,1.05000,  1281,     9.200,   0.02570,   0.73700,   0.00000,   0.00000,1.00000,1,    2.6,     8.400,     0.000,   7,1.0000
 12873,'1 ',     5.865,     0.000,     0.000,     0.000,1.05000,  1281,    20.700,   0.02570,   0.73700,   0.00000,   0.00000,1.00000,1,    6.1,    19.550,     0.000,   7,1.0000
 12874,'1 ',     2.550,     0.000,     0.000,     0.000,1.05000,  1281,     8.500,   0.00210,   0.08600,   0.00000,   0.00000,1.00000,1,    2.7,     8.500,     0.000,   7,1.0000
 13170,'1 ',     7.185,     0.000,     0.000,     0.000,1.05000,  1311,    25.300,   0.02570,   0.73700,   0.00000,   0.00000,1.00000,1,    4.6,    23.950,     0.000,   7,1.0000
 13171,'1 ',     3.000,     0.000,     0.000,     0.000,1.05000,  1311,    10.000,   0.00900,   0.14800,   0.00000,   0.00000,1.00000,1,    6.0,    10.000,     0.000,   7,1.0000
 13173,'DW',     2.550,     0.000,     0.000,     0.000,1.05000,  1311,    10.500,   0.00900,   0.14800,   0.00000,   0.00000,1.00000,1,    6.0,     8.500,     0.000,   7,1.0000
 13174,'DW',    10.755,     0.000,     0.000,     0.000,1.05000,  1311,    36.000,   0.02570,   0.73700,   0.00000,   0.00000,1.00000,1,   11.0,    35.850,     0.000,   7,1.0000
 13175,'DW',     3.450,     0.000,     0.000,     0.000,1.05000,  1311,    11.500,   0.02570,   0.73700,   0.00000,   0.00000,1.00000,1,    3.7,    11.500,     0.000,   7,1.0000
 13176,'DW',     5.400,     0.000,     0.000,     0.000,1.05000,  1311,    18.750,   0.00900,   0.16600,   0.00000,   0.00000,1.00000,1,    5.6,    18.000,     0.000,   7,1.0000
 13434,'10',     4.300,     0.000,     0.000,     0.000,1.00000,     0,     4.500,   0.00000,   0.20000,   0.00000,   0.10000,1.00000,0,    1.0,     4.300,     0.000,   1,1.0000
 13471,'1 ',     0.198,     0.000,     0.000,     0.000,1.05000,  1341,     0.660,   0.02040,   0.33060,   0.00000,   0.00000,1.00000,1,    0.2,     0.660,     0.000,   7,1.0000
 13472,'DW',     0.765,     0.000,     0.000,    -0.840,1.05000,  1341,     2.700,   0.03020,   0.86600,   0.00000,   0.00000,1.00000,1,    0.8,     2.550,     0.000,   7,1.0000
 13473,'4 ',     3.000,     0.000,     0.000,     0.000,1.05000,  1341,    10.000,   0.00320,   0.12400,   0.00000,   0.00000,1.00000,1,    4.7,    10.000,     0.000,   7,1.0000
 13474,'5 ',     1.800,     0.000,     0.000,     0.000,1.05000,  1341,     6.250,   0.00900,   0.16600,   0.00000,   0.00000,1.00000,1,    1.9,     6.000,     0.000,   7,1.0000
 13475,'6 ',     2.295,     0.000,     0.000,     0.000,1.05000,  1341,     7.650,   0.00730,   0.13500,   0.00000,   0.00000,1.00000,1,    2.4,     7.650,     0.000,   7,1.0000
 13476,'3 ',     3.570,     0.000,     0.000,     0.000,1.05000,  1341,    11.500,   0.02570,   0.73700,   0.00000,   0.00000,1.00000,1,    3.7,    11.900,     0.000,   7,1.0000
 13477,'2 ',     0.765,     0.000,     0.000,     0.000,1.05000,  1341,     2.700,   0.03020,   0.86600,   0.00000,   0.00000,1.00000,1,    0.8,     2.550,     0.000,   7,1.0000
 13479,'9 ',     1.020,     0.000,     0.000,     0.000,1.00000,     0,     3.400,   0.00730,   0.13500,   0.00000,   0.00000,1.00000,1,    1.1,     3.400,     0.000,   7,1.0000
 14073,'3 ',     1.935,    -2.400,    -2.400,    -2.400,1.04000,     0,     7.611,   0.02040,   0.33060,   0.00000,   0.00000,1.00000,1,    2.0,     6.450,     0.000,   7,1.0000
 14075,'1 ',     1.000,     0.000,     0.000,     0.000,1.00000,     0,    10.000,   0.00000,   0.15500,   0.00000,   0.00000,1.00000,1,    3.0,    10.000,     1.000,   1,1.0000
 14471,'1 ',     1.200,     0.000,     0.000,     0.000,1.04000,     0,     4.000,   0.00320,   0.12400,   0.00000,   0.00000,1.00000,1,    1.4,     4.000,     0.000,   7,1.0000
 14472,'1 ',     0.085,     0.000,     0.000,     0.000,1.00000,     0,     0.850,   0.00210,   0.08600,   0.00000,   0.00000,1.00000,1,    0.1,     0.850,     0.000,   1,1.0000
 14604,'1 ',     4.800,     0.000,     0.000,     0.000,1.05000,     0,     7.000,   0.00000,   0.15000,   0.00000,   0.10000,1.00000,0,    2.0,     4.800,     0.000,   5,1.0000
 14871,'1 ',     0.510,     0.000,     0.000,     0.000,1.05000,     0,     4.600,   0.02570,   0.73700,   0.00000,   0.00000,1.00000,1,    0.5,     1.700,     0.000,   7,1.0000
 14902,'OH',   450.000,     0.000,   279.000,  -178.000,1.07500,  3522,   540.000,   0.00000,   0.32770,   0.00000,   0.00000,1.00000,0,  279.0,   450.000,   225.000,   4,1.0000
 15171,'TW',    13.800,    -0.458,    15.120,   -15.120,1.05000,  1511,    46.000,   0.00900,   0.14800,   0.00000,   0.00000,1.00000,1,   15.3,    46.000,     0.000,   7,1.0000
 15172,'DW',     3.000,    -3.290,     3.290,    -3.290,1.00000,     0,    10.000,   0.00900,   0.14800,   0.00000,   0.00000,1.00000,1,    3.1,    10.000,     0.000,   7,1.0000
 15173,'DW',     0.765,    -0.840,     0.840,    -0.840,1.00000,     0,     2.550,   0.00730,   0.13500,   0.00000,   0.00000,1.00000,1,    0.8,     2.550,     0.000,   7,1.0000
 15174,'DW',     6.000,    -6.570,     6.570,    -6.570,1.00000,     0,    20.000,   0.00900,   0.14800,   0.00000,   0.00000,1.00000,1,    6.2,    20.000,     0.000,   7,1.0000
 15571,'DW',     1.785,    -1.960,     1.960,    -1.960,1.00000,     0,     5.950,   0.00730,   0.13500,   0.00000,   0.00000,1.00000,1,    1.9,     5.950,     0.000,   7,1.0000
 15572,'DW',     5.400,    -3.431,     5.920,    -5.920,1.00000,     0,    18.750,   0.00900,   0.16600,   0.00000,   0.00000,1.00000,1,    5.6,    18.000,     0.000,   7,1.0000
 15573,'1 ',     6.000,     0.000,     0.000,     0.000,1.04000,     0,    23.000,   0.02570,   0.73700,   0.00000,   0.00000,1.00000,1,    6.2,    20.000,     0.000,   7,1.0000
 15771,'1 ',     0.594,    -0.300,    -0.300,    -0.300,1.04000,  3581,     1.980,   0.02040,   0.33060,   0.00000,   0.00000,1.00000,1,    1.5,     1.980,     0.000,   7,1.0000
 15772,'1 ',     0.900,    -1.920,    -1.920,    -1.920,1.04000,  3581,     3.000,   0.02040,   0.33060,   0.00000,   0.00000,1.00000,1,    1.5,     3.000,     0.000,   7,1.0000
 16371,'1 ',     1.020,     0.000,     0.000,     0.000,1.00000,     0,     3.400,   0.00730,   0.13500,   0.00000,   0.00000,1.00000,1,    1.1,     3.400,     0.000,   7,1.0000
 16372,'2 ',     1.020,     0.000,     0.000,     0.000,1.00000,     0,     3.400,   0.00730,   0.13500,   0.00000,   0.00000,1.00000,1,    1.1,     3.400,     0.000,   7,1.0000
 16373,'3 ',     2.040,     0.000,     0.000,     0.000,1.00000,     0,     6.800,   0.00730,   0.13500,   0.00000,   0.00000,1.00000,1,    2.1,     6.800,     0.000,   7,1.0000
 16374,'4 ',     2.295,     0.000,     0.000,     0.000,1.00000,     0,     7.650,   0.00210,   0.08600,   0.00000,   0.00000,1.00000,1,    2.4,     7.650,     0.000,   7,1.0000
 16375,'1 ',     1.188,     0.000,     0.000,     0.000,1.00000,     0,     4.250,   0.00210,   0.08600,   0.00000,   0.00000,1.00000,1,    1.3,     3.960,     0.000,   7,1.0000
 16376,'6 ',     1.485,     0.000,     0.000,     0.000,1.00000,     0,     5.100,   0.00210,   0.08600,   0.00000,   0.00000,1.00000,1,    1.5,     4.950,     0.000,   7,1.0000
 16377,'1 ',     2.700,     0.000,     0.000,     0.000,1.00000,     0,     9.200,   0.02570,   0.73700,   0.00000,   0.00000,1.00000,1,    3.0,     9.000,     0.000,   7,1.0000
 16378,'1 ',     0.480,     0.000,     0.000,     0.000,1.00000,     0,     1.700,   0.00210,   0.08600,   0.00000,   0.00000,1.00000,1,    0.5,     1.600,     0.000,   7,1.0000
 16379,'2 ',     0.087,     0.000,     0.000,     0.000,1.00000,     0,     0.323,   0.00320,   0.12400,   0.00000,   0.00000,1.00000,1,    1.3,     0.290,     0.000,   7,1.0000
 16571,'1 ',    11.340,     0.000,     0.000,     0.000,1.05000,  1651,    40.000,   0.02570,   0.73700,   0.00000,   0.00000,1.00000,1,   12.6,    37.800,     0.000,   7,1.0000
 16670,'1 ',     1.350,    -1.296,     0.000,    -3.070,1.00000,     0,     4.500,   0.03020,   0.86600,   0.00000,   0.00000,1.00000,1,    2.9,     4.500,     0.000,   7,1.0000
 16671,'1 ',     1.020,     0.000,     0.000,     0.000,1.04000,     0,     3.400,   0.00730,   0.13500,   0.00000,   0.00000,1.00000,1,    1.1,     3.400,     0.000,   7,1.0000
 16672,'2 ',     0.477,    -0.560,    -0.560,    -0.560,1.04000,     0,     1.700,   0.00730,   0.13500,   0.00000,   0.00000,1.00000,1,    0.5,     1.590,     0.000,   7,1.0000
 16674,'1 ',     5.610,     0.000,     0.000,     0.000,1.04000,     0,    18.700,   0.00730,   0.13500,   0.00000,   0.00000,1.00000,1,    5.8,    18.700,     0.000,   7,1.0000
 16675,'2 ',     2.400,    -2.650,    -2.650,    -2.650,1.04000,     0,     8.000,   0.02690,   0.76900,   0.00000,   0.00000,1.00000,1,    2.7,     8.000,     0.000,   7,1.0000
 16677,'1 ',     1.020,     0.000,     0.000,     0.000,1.00000,     0,     3.400,   0.00210,   0.08600,   0.00000,   0.00000,1.00000,1,    1.1,     3.400,     0.000,   7,1.0000
 16679,'3 ',     1.020,     0.000,     0.000,     0.000,1.00000,     0,     3.400,   0.00210,   0.08600,   0.00000,   0.00000,1.00000,1,    1.1,     3.400,     0.000,   7,1.0000
 16873,'3 ',     8.000,     0.000,     7.000,    -1.000,1.05000,  1681,    11.500,   0.00000,   0.25000,   0.00000,   0.00000,1.00000,0,    7.0,     8.000,     2.000,   3,1.0000
 17073,'3 ',    22.500,     0.000,    23.000,   -25.000,1.05000,  1701,    35.500,   0.00410,   0.18000,   0.00000,   0.00000,1.00000,0,    7.0,    22.500,     5.000,   3,1.0000
 17074,'4 ',    22.500,     0.000,    23.000,   -25.000,1.05000,  1701,    35.500,   0.00410,   0.18000,   0.00000,   0.00000,1.00000,0,    7.0,    22.500,     5.000,   3,1.0000
 17075,'7 ',     0.594,    -0.800,    -0.800,    -0.800,1.00000,     0,     1.980,   0.02040,   0.33060,   0.00000,   0.00000,1.00000,1,    0.6,     1.980,     0.000,   7,1.0000
 17077,'8 ',     0.006,     0.000,     0.000,     0.000,1.00000,     0,     1.200,   0.03020,   0.86600,   0.00000,   0.00000,1.00000,1,    0.3,     0.020,     0.000,   7,1.0000
 17671,'1 ',    10.000,     0.000,     7.000,    -3.000,1.05000,  1701,    12.500,   0.00000,   0.15000,   0.00000,   0.00000,1.00000,0,    7.0,    10.000,     3.000,   3,1.0000
 17672,'2 ',    10.000,     0.000,     7.000,    -3.000,1.05000,  1701,    12.500,   0.00000,   0.13500,   0.00000,   0.00000,1.00000,0,    7.0,    10.000,     3.000,   3,1.0000
 18271,'DW',     1.275,    -1.000,    -1.000,    -1.000,1.00000,     0,     4.250,   0.00730,   0.13500,   0.00000,   0.00000,1.00000,1,    1.2,     4.250,     0.000,   7,1.0000
 18471,'1 ',     1.497,     0.000,     0.000,     0.000,1.04000,     0,     5.200,   0.00550,   0.14300,   0.00000,   0.00000,1.00000,1,    1.5,     4.990,     0.000,   7,1.0000
 18472,'DW',     0.750,    -0.576,     0.000,    -0.820,1.00000,     0,     2.978,   0.00220,   0.41940,   0.00000,   0.00000,1.00000,1,    0.8,     2.500,     0.000,   7,1.0000
 18901,'OH',    58.000,     0.000,    30.000,   -21.320,1.07500,  1891,    68.235,   0.00000,   0.17000,   0.00000,   0.00000,1.00000,0,   30.0,    58.000,    20.000,   1,1.0000
 19081,'1 ',     0.765,     0.000,     0.000,     0.000,1.04000,     0,     2.550,   0.00730,   0.13500,   0.00000,   0.00000,1.00000,1,    0.8,     2.550,     0.000,   7,1.0000
 19082,'2 ',     0.510,     0.000,     0.000,     0.000,1.05000,     0,     1.700,   0.00730,   0.13500,   0.00000,   0.00000,1.00000,1,    0.5,     1.700,     0.000,   7,1.0000
 19083,'1 ',     1.497,     0.000,     0.000,     0.000,1.04000,     0,     6.900,   0.02570,   0.73700,   0.00000,   0.00000,1.00000,1,    1.6,     4.990,     0.000,   7,1.0000
 19084,'2 ',     1.350,    -1.500,    -1.500,    -1.500,1.04000,     0,     4.600,   0.02570,   0.73700,   0.00000,   0.00000,1.00000,1,    1.6,     4.500,     0.000,   7,1.0000
 19085,'1 ',     6.300,    -7.000,    -7.000,    -7.000,1.04000,     0,    23.824,   0.00220,   0.41940,   0.00000,   0.00000,1.00000,1,    6.6,    21.000,     0.000,   7,1.0000
 19101,'OH',    98.400,     0.000,    51.000,   -36.170,1.07500,  1911,   108.240,   0.00000,   0.14400,   0.00279,   0.11997,1.00000,0,   51.0,    98.400,    34.000,   1,1.0000
 19317,'SC',     0.000,     0.000,     6.000,    -6.000,1.05000,  1931,     6.000,   0.00000,9999.00000,   0.00000,   0.00000,1.00000,0,    6.0,     0.000,     0.000,   1,1.0000
 19371,'1 ',     7.125,     0.000,     0.000,     0.000,1.05000,  1931,    29.780,   0.00220,   0.41940,   0.00000,   0.00000,1.00000,1,   11.0,    23.750,     0.000,   7,1.0000
 19372,'2 ',     3.315,     0.000,     0.000,     0.000,1.05000,  1931,    11.050,   0.00730,   0.13500,   0.00000,   0.00000,1.00000,1,   11.6,    11.050,     0.000,   7,1.0000
 19471,'1 ',   130.000,    55.853,    94.000,   -50.000,1.07500,  1941,   153.000,   0.00000,   0.15300,   0.00000,   0.00000,1.00000,1,   75.0,   133.500,    60.000,   4,1.0000
 19472,'5 ',    58.274,     0.000,    38.000,   -23.000,1.07500,  1941,    66.625,   0.00200,   0.14450,   0.00000,   0.00000,1.00000,0,   41.0,    58.274,    19.700,   1,1.0000
 19473,'3 ',    58.274,     0.000,    40.000,   -23.000,1.07500,  1941,    66.625,   0.00200,   0.14450,   0.00000,   0.00000,1.00000,0,   41.0,    58.274,    19.700,   1,1.0000
 19601,'2 ',     0.585,     0.000,     0.000,     0.000,1.00000,     0,     6.500,   0.00000,   0.21900,   0.00000,   0.00000,1.00000,1,  100.0,     5.850,     0.000,   2,1.0000
 19771,'1 ',    12.750,     0.000,     0.000,     0.000,1.05000,  1971,    46.875,   0.00900,   0.16600,   0.00000,   0.00000,1.00000,1,    8.5,    42.500,     0.000,   7,1.0000
 19772,'TW',     2.550,    -2.011,     2.790,    -2.790,1.05000,  1971,     8.500,   0.00730,   0.13500,   0.00000,   0.00000,1.00000,1,    2.8,     8.500,     0.000,   7,1.0000
 19773,'TW',     9.000,    -7.111,     9.860,    -9.860,1.05000,  1971,    38.714,   0.00220,   0.41940,   0.00000,   0.00000,1.00000,1,    9.9,    30.000,     0.000,   7,1.0000
 19971,'1 ',     6.000,    -6.700,     6.700,    -6.700,1.05000,  1991,    20.700,   0.02570,   0.73700,   0.00000,   0.00000,1.00000,1,    6.7,    20.000,     0.000,   7,1.0000
 19972,'2 ',     0.690,     0.000,     0.000,     0.000,1.05000,  1991,     2.300,   0.02570,   0.73700,   0.00000,   0.00000,1.00000,1,    0.7,     2.300,     0.000,   7,1.0000
 19973,'3 ',     0.690,     0.000,     0.000,     0.000,1.05000,  1991,     2.300,   0.02570,   0.73700,   0.00000,   0.00000,1.00000,1,    1.1,     2.300,     0.000,   7,1.0000
 19974,'4 ',     4.830,    -4.000,     4.000,    -4.000,1.05000,  1991,    16.100,   0.02570,   0.73700,   0.00000,   0.00000,1.00000,1,    4.0,    16.100,     0.000,   7,1.0000
 20101,'OH',    35.000,     0.000,    21.000,   -14.000,1.07500,  2011,    41.200,   0.00000,   0.18000,   0.00000,   0.00000,1.00000,0,   21.0,    35.000,   -38.000,   1,1.0000
 21071,'2 ',     0.150,     0.000,     0.000,     0.000,1.05000,     0,     0.850,   0.00730,   0.13500,   0.00000,   0.00000,1.00000,1,    0.2,     0.500,     0.000,   7,1.0000
 21371,'TW',     8.550,    -5.341,     9.500,    -9.500,1.05000,  2131,    31.730,   0.00920,   0.16210,   0.00000,   0.00000,1.00000,1,    9.5,    28.500,     0.000,   7,1.0000
 21372,'2 ',     5.250,    -3.261,     5.800,    -5.800,1.05000,  2131,    23.380,   0.00920,   0.16210,   0.00000,   0.00000,1.00000,1,    5.8,    17.500,     0.000,   7,1.0000
 21871,'1 ',     0.510,     0.000,     0.000,     0.000,1.01000,     0,     1.700,   0.00730,   0.13500,   0.00000,   0.00000,1.00000,1,    0.5,     1.700,     0.000,   7,1.0000
 21872,'2 ',     0.750,    -0.990,    -0.990,    -1.280,1.01000,     0,     2.700,   0.03020,   0.86600,   0.00000,   0.00000,1.00000,1,    0.9,     2.500,     0.000,   7,1.0000
 21873,'1 ',     1.274,     0.000,     0.000,     0.000,1.00000,     0,     1.600,   0.02040,   0.33060,   0.00000,   0.00000,1.00000,0,  100.0,     1.274,     0.000,   1,1.0000
 21875,'1 ',     3.000,     0.000,     0.000,     0.000,1.00000,     0,     3.780,   0.00000,   0.15000,   0.00000,   0.00000,1.00000,0,  100.0,     3.000,     0.000,   1,1.0000
 22272,'DW',     5.100,    -3.900,     0.000,    -5.590,1.00000,     0,    16.000,   0.00900,   0.14800,   0.00000,   0.00000,1.00000,1,    5.3,    17.000,     0.000,   7,1.0000
 22273,'DW',     1.350,    -0.965,     0.000,    -1.480,1.00000,     0,     4.000,   0.02690,   0.76900,   0.00000,   0.00000,1.00000,1,    1.4,     4.500,     0.000,   7,1.0000
 22274,'2 ',     1.782,    -2.400,    -2.400,    -2.400,1.00000,     0,     5.940,   0.02040,   0.33060,   0.00000,   0.00000,1.00000,1,    1.9,     5.940,     0.000,   7,1.0000
 22275,'4 ',     1.275,     0.000,     0.000,     0.000,1.00000,     0,     4.250,   0.00730,   0.13500,   0.00000,   0.00000,1.00000,1,    1.3,     4.250,     0.000,   7,1.0000
 22276,'3 ',     1.785,     0.000,     0.000,     0.000,1.00000,     0,     6.680,   0.00920,   0.16210,   0.00000,   0.00000,1.00000,1,    1.9,     5.950,     0.000,   7,1.0000
 22277,'DW',     0.915,    -0.990,     0.000,    -0.990,1.00000,     0,     3.340,   0.00920,   0.16210,   0.00000,   0.00000,1.00000,1,    0.9,     3.050,     0.000,   7,1.0000
 22278,'1 ',     1.386,    -1.000,    -1.000,    -1.000,1.00000,     0,     4.620,   0.02040,   0.33060,   0.00000,   0.00000,1.00000,1,    1.4,     4.620,     0.000,   7,1.0000
 22292,'5 ',     6.000,     0.000,     0.000,     0.000,1.00000,     0,     6.000,   0.00000,   0.20000,   0.00000,   0.10000,1.00000,0,    2.0,     6.000,     0.000,   1,1.0000
 22371,'1 ',    17.850,     0.000,     0.000,     0.000,1.05000,  2231,    59.500,   0.00730,   0.13500,   0.00000,   0.00000,1.00000,1,   12.0,    59.500,     0.000,   7,1.0000
 22471,'1 ',     0.765,     0.000,     0.000,     0.000,1.04000,     0,     2.550,   0.00730,   0.13500,   0.00000,   0.00000,1.00000,1,    0.8,     2.550,     0.000,   7,1.0000
 22472,'2 ',     1.275,     0.000,     0.000,     0.000,1.04000,     0,     4.250,   0.00730,   0.13500,   0.00000,   0.00000,1.00000,1,    1.3,     4.250,     0.000,   7,1.0000
 22473,'1 ',     1.275,    -1.500,    -1.500,    -1.500,1.01000,     0,     4.250,   0.00730,   0.13500,   0.00000,   0.00000,1.00000,1,    1.3,     4.250,     0.000,   7,1.0000
...